ELEMENTS  C H O N END
SPECIES C3H8 	O2	CO	H2O	CO2 N2 END

REACTIONS
C3H8+3.5O2=>3CO+4H2O 		5.82320E+12 0 34000
FODR C3H8/0.80/O2/0.86/
CO+0.5O2=CO2    	 2.00E+09	 0.0	 12000	
END

GLOBAL
C3H8+5O2+5N2=3CO2+4H2O+5N2
C3H8/1/
O2/0.21/N2/0.79
END
