ELEMENTS
H 	O	C	END

SPECIES
CH4  	H2O	O2	CO2	END


REACTIONS

CH4+2O2=>CO2+2H2O			1.1e18     	0 	15000
END