ELEMENTS
H 	O	C	N	END

SPECIES
CH4  	H2O	O2	CO2	CO N2	END


REACTIONS
2CH4+3O2=>2CO+4H2O		1.398762e10    	-0.062 	27908.18
FORD / CH4 0.5 /
FORD / O2 1.066 /

2CO+O2=2CO2			7.381123e11	0.215		18315.85
END
