ELEMENTS
H 	O	C	N	END

SPECIES
CH4  	H2O	O2	CO CO2	N2	END


REACTIONS
2CH4+3O2=>2CO+4H2O		1.398762e10    	-0.062 	27908.18
FODR	CH4/0.5/O2/1.066

2CO+O2=2CO2			7.381123e11	0.215		18315.85
END

GLOBAL
CH4+2O2=CO2+2H2O
CH4/1/
O2/0.21/N2/0.79
END