ELEMENTS
H 	O	C	AR	END

SPECIES
CH4  	H2O	O2	CO2	AR	END


REACTIONS
CH4+2O2=>CO2+2H2O			1.1e18     	0 	15000
END

GLOBAL
CH4+2O2=CO2+2H2O
CH4/1/
O2/0.21/N2/0.79
END