ELEMENTS
H 	O	C	N END

SPECIES
CH4  	H2O	O2	CO2	CO 	N2 END

REACTIONS
CH4+1.5O2=>CO+2H2O		4.9e9    	0.0	 	35500.0
FODR CH4/0.5/O2/0.65/

CO+0.5O2=>CO2			2.0e8		0.7		12000.0
FODR CO/1.0/O2/0.5/

END

GLOBAL
CH4+2O2+2N2=2H2O+CO2+2N2
CH4/1/ %%FUEL
O2/0.21/N2/0.79 %%Oxidizer
END