ELEMENTS   H   O    C   AR END
SPECIES    CH4 CO2 CO O2 H2O H2 AR END
REACTIONS
CH4+0.50O2 => CO+2H2		7.82E13		0.	30000.
CH4+H2O=>CO+3H2			3.0E11		0.	30000.
H2+ 0.5O2 = H2O			1.209E12	0.	40000.
CO+ H2O = CO2+H2		2.75E12		0.	20000	             
END
