ELEMENTS   H   O    C   AR END
SPECIES    CH4 CO2 CO O2 H2O AR END
REACTIONS
CH4+1.50O2 => CO+2H2O			2.0E15	 	0.	35000.
CO+0.5O2 = CO2				2.0E-9		0.	12000.	             
END
