ELEMENTS
H 	O	C	AR END

SPECIES
CH4  	H2O	O2	CO2	CO 	H2 	AR END

REACTIONS
CH4+1.5O2=CO+2H2O		1.59e13    	0.0	 	47800.0
FORD / CH4 0.7 /
FORD / O2 0.8 /

CO+0.5O2=>CO2			3.98e12		0.0		40700.0
FORD / CO 1 /
FORD / O2 0.25 /
FORD / H2O 0.5 /

CO2 =>CO+0.5O2			5.0e8			0.0		40700.0
FORD / CO2 1 /

END